test/networks/trafo1_lvnetwork7.dss
Clear 

Set DefaultBaseFrequency=50 

! Swing or Source Bar 
New circuit.trafo1_lvnetwork7_1 phases=3 pu=1.0 basekv=10.0 bus1=mv_import_joint_trafo1_lvnetwork7 

! Trafo XFMRCodes 
Redirect XFMRCode.dss 

! Trafo 
New Transformer.transformer10 Xfmrcode=testtrafotype Buses=[mv_import_joint_trafo1_lvnetwork7  lvjoint12.1.2.3] kVs=[10.0 0.4] 

! LineCodes 
Redirect LineCode.dss 

! Lines 
New Line.lv_cable_trafo1_lvnetwork7_2_main_grid Phases=4 Bus1=lvjoint12.1.2.3.0 Bus2=lv_node_trafo1_lvnetwork7_2.1.2.3.4 LineCode=lv_line Length=53.10671705002967 Units=m 
New Line.lv_cable_trafo1_lvnetwork7_3_main_grid Phases=4 Bus1=lv_node_trafo1_lvnetwork7_2.1.2.3.4 Bus2=lv_node_trafo1_lvnetwork7_3.1.2.3.4 LineCode=lv_line Length=92.59463512366455 Units=m 
New Line.lv_cable_trafo1_lvnetwork7_4_main_grid Phases=4 Bus1=lv_node_trafo1_lvnetwork7_3.1.2.3.4 Bus2=lv_node_trafo1_lvnetwork7_4.1.2.3.4 LineCode=lv_line Length=0.33342165498073983 Units=m 

! Load Definitions 

! Final Configurations 
Set VoltageBases = [10.0, 0.4] 
CalcVoltageBases 
SetkVBase Bus=mv_import_joint_trafo1_lvnetwork7 kVLL=10.0
SetkVBase Bus=lvjoint12 kVLL=0.4

! Solve
Set mode=snapshot
! Solve
